<?xml version="1.0" encoding="UTF-8"?>

<!-- generated on 2024-05-20 15:01:33.461489 by randomTrips.py v1_19_0+0000-baa66a0f364
<configuration>
    <net-file value="map.net.xml"/>
    <route-file value="map.rou.xml"/>
</configuration>
-->

<routes xmlns:xsi="http://www.w3.org/2001/XMLSchema-instance" xsi:noNamespaceSchemaLocation="http://sumo.dlr.de/xsd/routes_file.xsd">
    
    <trip id="1" depart="0.00" from="-926428264" to="1123482450#2"/>
    <trip id="2" depart="0.00" from="-926428264" to="1123482450#2"/>
    <trip id="3" depart="0.00" from="-926428264" to="1123482450#2"/>
    <trip id="4" depart="0.00" from="-926428264" to="1123482450#2"/>
    <trip id="5" depart="0.00" from="-926428264" to="1123482450#2"/>
	
    <trip id="6" depart="0.00" from="218183854#11" to="1271145221"/>
    <trip id="7" depart="0.00" from="218183854#11" to="1271145221"/>
    <trip id="8" depart="0.00" from="218183854#11" to="1271145221"/>
    <trip id="9" depart="0.00" from="218183854#11" to="1271145221"/>
    <trip id="10" depart="0.00" from="218183854#11" to="1271145221"/>
	
    <trip id="11" depart="0.00" from="1116155760#2" to="629192669#0"/>
    <trip id="12" depart="0.00" from="1116155760#2" to="629192669#0"/>
    <trip id="13" depart="0.00" from="1116155760#2" to="629192669#0"/>
    <trip id="14" depart="0.00" from="1116155760#2" to="629192669#0"/>
    <trip id="15" depart="0.00" from="1116155760#2" to="629192669#0"/>
	
    <trip id="16" depart="0.00" from="1231720896" to="926418977#8"/>
    <trip id="17" depart="0.00" from="1231720896" to="926418977#8"/>
    <trip id="18" depart="0.00" from="1231720896" to="926418977#8"/>
    <trip id="19" depart="0.00" from="1231720896" to="926418977#8"/>
    <trip id="20" depart="0.00" from="1231720896" to="926418977#8"/>
	
    <trip id="21" depart="0.00" from="891411218" to="-359262541#1"/>
    <trip id="22" depart="0.00" from="891411218" to="-359262541#1"/>
    <trip id="23" depart="0.00" from="891411218" to="-359262541#1"/>
    <trip id="24" depart="0.00" from="891411218" to="-359262541#1"/>
    <trip id="25" depart="0.00" from="891411218" to="-359262541#1"/>
	
    <trip id="26" depart="0.00" from="-892154180#0" to="893202876#0"/>
    <trip id="27" depart="0.00" from="-892154180#0" to="893202876#0"/>
    <trip id="28" depart="0.00" from="-892154180#0" to="893202876#0"/>
    <trip id="29" depart="0.00" from="-892154180#0" to="893202876#0"/>
    <trip id="30" depart="0.00" from="-892154180#0" to="893202876#0"/>
	
    <trip id="31" depart="0.00" from="186253993#2" to="233036583#1"/>
    <trip id="32" depart="0.00" from="186253993#2" to="233036583#1"/>
    <trip id="33" depart="0.00" from="186253993#2" to="233036583#1"/>
    <trip id="34" depart="0.00" from="186253993#2" to="233036583#1"/>
    <trip id="35" depart="0.00" from="186253993#2" to="233036583#1"/>
	
    <trip id="36" depart="0.00" from="663169786#0" to="1033436828"/>
    <trip id="37" depart="0.00" from="663169786#0" to="1033436828"/>
    <trip id="38" depart="0.00" from="663169786#0" to="1033436828"/>
    <trip id="39" depart="0.00" from="663169786#0" to="1033436828"/>
    <trip id="40" depart="0.00" from="663169786#0" to="1033436828"/>
	
    <trip id="41" depart="0.00" from="207166189#0" to="815791638#0"/>
    <trip id="42" depart="0.00" from="207166189#0" to="815791638#0"/>
    <trip id="43" depart="0.00" from="207166189#0" to="815791638#0"/>
    <trip id="44" depart="0.00" from="207166189#0" to="815791638#0"/>
    <trip id="45" depart="0.00" from="207166189#0" to="815791638#0"/>
	
    <trip id="46" depart="0.00" from="359262556#1" to="1121534075#15"/>
    <trip id="47" depart="0.00" from="359262556#1" to="1121534075#15"/>
    <trip id="48" depart="0.00" from="359262556#1" to="1121534075#15"/>
    <trip id="49" depart="0.00" from="359262556#1" to="1121534075#15"/>
    <trip id="50" depart="0.00" from="359262556#1" to="1121534075#15"/>
    
</routes>
